
  EPA STORM WATER MANAGEMENT MODEL - VERSION 5.1 (Build 5.1.013)
  --------------------------------------------------------------

  
  *********************************************************
  NOTE: The summary statistics displayed in this report are
  based on results found at every computational time step,  
  not just on results from each reporting time step.
  *********************************************************
  
  ****************
  Analysis Options
  ****************
  Flow Units ............... CFS
  Process Models:
    Rainfall/Runoff ........ NO
    RDII ................... NO
    Snowmelt ............... NO
    Groundwater ............ NO
    Flow Routing ........... YES
    Ponding Allowed ........ NO
    Water Quality .......... NO
  Flow Routing Method ...... DYNWAVE
  Surcharge Method ......... EXTRAN
  Starting Date ............ 03/13/2020 00:00:00
  Ending Date .............. 03/17/2020 04:00:00
  Antecedent Dry Days ...... 0.0
  Report Time Step ......... 00:15:00
  Routing Time Step ........ 30.00 sec
  Variable Time Step ....... YES
  Maximum Trials ........... 8
  Number of Threads ........ 1
  Head Tolerance ........... 0.005000 ft
  
  
  **************************        Volume        Volume
  Flow Routing Continuity        acre-feet      10^6 gal
  **************************     ---------     ---------
  Dry Weather Inflow .......         0.000         0.000
  Wet Weather Inflow .......         0.000         0.000
  Groundwater Inflow .......         0.000         0.000
  RDII Inflow ..............         0.000         0.000
  External Inflow ..........     22954.135      7479.948
  External Outflow .........     22943.248      7476.400
  Flooding Loss ............         0.000         0.000
  Evaporation Loss .........         0.000         0.000
  Exfiltration Loss ........         0.000         0.000
  Initial Stored Volume ....         0.001         0.000
  Final Stored Volume ......         5.356         1.745
  Continuity Error (%) .....         0.024
  
  
  ***************************
  Time-Step Critical Elements
  ***************************
  Link RS4-3 (99.98%)
  
  
  ********************************
  Highest Flow Instability Indexes
  ********************************
  Link RS12-11 (1)
  Link RS11-6 (1)
  Link RS4-3 (1)
  Link RS5-4 (1)
  Link RS6-5 (1)
  
  
  *************************
  Routing Time Step Summary
  *************************
  Minimum Time Step           :     1.54 sec
  Average Time Step           :     1.94 sec
  Maximum Time Step           :    30.00 sec
  Percent in Steady State     :     0.00
  Average Iterations per Step :     2.21
  Percent Not Converging      :     0.00
  
  
  ******************
  Node Depth Summary
  ******************
  
  ---------------------------------------------------------------------------------
                                 Average  Maximum  Maximum  Time of Max    Reported
                                   Depth    Depth      HGL   Occurrence   Max Depth
  Node                 Type         Feet     Feet     Feet  days hr:min        Feet
  ---------------------------------------------------------------------------------
  2                    JUNCTION     4.46     6.93   271.93     0  12:07        6.91
  3                    JUNCTION     2.94     4.58   270.38     0  12:05        4.57
  4                    JUNCTION     5.56     8.89   274.89     0  12:05        8.87
  5                    JUNCTION     3.36     5.10   271.30     0  12:05        5.09
  6                    JUNCTION     2.64     3.97   270.97     0  12:05        3.97
  7                    JUNCTION     4.12     6.69   274.69     0  12:05        6.67
  8                    JUNCTION     2.62     3.81   272.81     0  13:01        3.81
  9                    JUNCTION     4.67     7.49   277.29     0  13:01        7.48
  10                   JUNCTION     3.20     4.71   275.21     0  13:01        4.71
  11                   JUNCTION     4.42     7.22   278.42     0  13:01        7.22
  12                   JUNCTION     1.99     8.37   277.37     0  12:52        6.76
  13                   JUNCTION     1.59     5.75   276.25     0  12:55        4.90
  14                   JUNCTION     2.92     4.86   275.86     0  09:00        4.73
  15                   JUNCTION     2.36     4.19   275.39     0  08:25        4.17
  16                   JUNCTION     1.35     2.20   282.20     0  08:02        2.18
  17                   JUNCTION     4.80     7.06   282.06     0  13:00        7.06
  1                    OUTFALL      4.44     6.92   266.92     0  12:07        6.90
  
  
  *******************
  Node Inflow Summary
  *******************
  
  -------------------------------------------------------------------------------------------------
                                  Maximum  Maximum                  Lateral       Total        Flow
                                  Lateral    Total  Time of Max      Inflow      Inflow     Balance
                                   Inflow   Inflow   Occurrence      Volume      Volume       Error
  Node                 Type           CFS      CFS  days hr:min    10^6 gal    10^6 gal     Percent
  -------------------------------------------------------------------------------------------------
  2                    JUNCTION      0.00  5870.72     0  12:05           0    7.48e+03       0.006
  3                    JUNCTION      0.00  5870.73     0  12:05           0    7.48e+03      -0.000
  4                    JUNCTION      0.00  5870.72     0  12:05           0    7.48e+03       0.001
  5                    JUNCTION      0.00  5870.73     0  12:05           0    7.48e+03       0.000
  6                    JUNCTION      0.00  5870.73     0  12:05           0    7.48e+03       0.003
  7                    JUNCTION      0.00  6354.16     0  12:55           0    7.48e+03      -0.008
  8                    JUNCTION      0.00  4770.95     0  13:01           0    6.02e+03       0.000
  9                    JUNCTION      0.00  4770.97     0  13:01           0    6.02e+03       0.000
  10                   JUNCTION      0.00  4770.98     0  13:01           0    6.02e+03       0.000
  11                   JUNCTION      0.00  4772.95     0  13:00           0    6.02e+03       0.009
  12                   JUNCTION      0.00  2753.74     0  12:52           0    1.47e+03       0.144
  13                   JUNCTION      0.00  1648.09     0  12:54           0    1.47e+03       0.035
  14                   JUNCTION      0.00  1278.70     0  09:00           0    1.46e+03      -0.022
  15                   JUNCTION      0.00  1283.76     0  08:03           0    1.46e+03       0.050
  16                   JUNCTION   1309.14  1309.14     0  08:00    1.46e+03    1.46e+03      -0.012
  17                   JUNCTION   4774.84  4774.84     0  13:00    6.02e+03    6.02e+03      -0.002
  1                    OUTFALL       0.00  5869.58     0  12:07           0    7.48e+03       0.000
  
  
  **********************
  Node Surcharge Summary
  **********************
  
  No nodes were surcharged.
  
  
  *********************
  Node Flooding Summary
  *********************
  
  No nodes were flooded.
  
  
  ***********************
  Outfall Loading Summary
  ***********************
  
  -----------------------------------------------------------
                         Flow       Avg       Max       Total
                         Freq      Flow      Flow      Volume
  Outfall Node           Pcnt       CFS       CFS    10^6 gal
  -----------------------------------------------------------
  1                     99.98   2846.67   5869.58    7475.845
  -----------------------------------------------------------
  System                99.98   2846.67   5869.58    7475.845
  
  
  ********************
  Link Flow Summary
  ********************
  
  -----------------------------------------------------------------------------
                                 Maximum  Time of Max   Maximum    Max/    Max/
                                  |Flow|   Occurrence   |Veloc|    Full    Full
  Link                 Type          CFS  days hr:min    ft/sec    Flow   Depth
  -----------------------------------------------------------------------------
  RS1-OUT              CHANNEL   5869.58     0  12:07     14.89    0.02    0.20
  RS2-1                CHANNEL   5870.72     0  12:05     18.31    0.01    0.16
  RS3-2                CHANNEL   5870.73     0  12:05     16.17    0.02    0.19
  RS4-3                CHANNEL   5870.72     0  12:05     15.57    0.02    0.19
  RS5-4                CHANNEL   5870.73     0  12:05     25.32    0.01    0.13
  RS6-5                CHANNEL   5870.73     0  12:05     15.61    0.01    0.15
  RS7-6                CHANNEL   4770.95     0  13:01     16.06    0.01    0.15
  RS8-7                CHANNEL   4770.95     0  13:01     15.57    0.01    0.17
  RS9-8                CHANNEL   4770.97     0  13:01     14.88    0.01    0.18
  RS10-9               CHANNEL   4770.98     0  13:01     15.30    0.01    0.18
  RS_MAIN-10           CHANNEL   4772.95     0  13:00    >50.00    0.02    0.21
  RS11-6               CHANNEL   1863.78     0  08:57     13.14    0.00    0.21
  RS12-11              CHANNEL   2213.93     0  04:04     22.53    0.00    0.15
  RS13-12              CHANNEL   1561.59     0  12:56     14.78    0.00    0.12
  RS14-13              CHANNEL   1278.70     0  09:00     10.64    0.00    0.13
  RS_TRIB-14           CONDUIT   1283.76     0  08:03      9.52    0.00    0.10
  
  
  ***************************
  Flow Classification Summary
  ***************************
  
  -------------------------------------------------------------------------------------
                      Adjusted    ---------- Fraction of Time in Flow Class ---------- 
                       /Actual         Up    Down  Sub   Sup   Up    Down  Norm  Inlet 
  Conduit               Length    Dry  Dry   Dry   Crit  Crit  Crit  Crit  Ltd   Ctrl  
  -------------------------------------------------------------------------------------
  RS1-OUT                 1.00   0.00  0.00  0.00  0.82  0.18  0.00  0.00  0.01  0.00
  RS2-1                   1.00   0.00  0.00  0.00  0.00  1.00  0.00  0.00  1.00  0.00
  RS3-2                   1.00   0.00  0.00  0.00  0.00  1.00  0.00  0.00  0.00  0.00
  RS4-3                   1.00   0.00  0.00  0.00  0.00  1.00  0.00  0.00  1.00  0.00
  RS5-4                   1.00   0.00  0.00  0.00  0.00  1.00  0.00  0.00  1.00  0.00
  RS6-5                   1.00   0.00  0.00  0.00  0.00  1.00  0.00  0.00  0.00  0.00
  RS7-6                   1.00   0.00  0.00  0.00  0.00  1.00  0.00  0.00  1.00  0.00
  RS8-7                   1.00   0.00  0.00  0.00  0.00  1.00  0.00  0.00  0.00  0.00
  RS9-8                   1.00   0.00  0.00  0.00  0.00  1.00  0.00  0.00  0.99  0.00
  RS10-9                  1.00   0.00  0.00  0.00  0.00  1.00  0.00  0.00  0.01  0.00
  RS_MAIN-10              1.00   0.00  0.00  0.00  1.00  0.00  0.00  0.00  0.06  0.00
  RS11-6                  1.00   0.00  0.00  0.00  0.97  0.03  0.00  0.00  0.88  0.00
  RS12-11                 1.00   0.00  0.00  0.00  0.07  0.93  0.00  0.00  0.94  0.00
  RS13-12                 1.00   0.00  0.00  0.00  0.04  0.96  0.00  0.00  0.01  0.00
  RS14-13                 1.00   0.00  0.00  0.00  0.94  0.06  0.00  0.00  0.93  0.00
  RS_TRIB-14              1.00   0.00  0.00  0.00  1.00  0.00  0.00  0.00  1.00  0.00
  
  
  *************************
  Conduit Surcharge Summary
  *************************
  
  No conduits were surcharged.
  

  Analysis begun on:  Mon Mar 23 12:37:38 2020
  Analysis ended on:  Mon Mar 23 12:37:42 2020
  Total elapsed time: 00:00:04